9
	Energy:       0.8865253
C         -1.65941        2.22972       -0.13439
C         -2.01608        1.29519       -0.51432
C         -1.65941        0.49889        0.10504
C         -2.01608       -0.43563       -0.27489
C         -1.65942       -1.23193        0.34447
C         -2.01609       -2.16645       -0.03546
C         -1.65943       -2.96275        0.58390
C         -2.01610       -3.89728        0.20396
C         -1.65944       -4.69357        0.82332
